MatpowerDataProcesssed/d_case2383wp.m
% 01/10/12 File data originated from Matpower data file
% 

Bus.con = [ ...
      1      220    1.095 -0.02609    1    1;
      2      220    1.085 -0.01763    1    1;
      3      220    1.075  -0.4574    1    1;
      4      220    1.071  -0.1486    1    1;
      5      220    1.067  -0.3316    1    1;
      6      400    1.024  -0.2412    1    1;
      7      220     1.06  -0.3743    1    1;
      8      400    1.027  -0.1812    1    1;
      9      400    1.036  -0.2945    1    1;
     10      220    1.108  -0.3604    1    1;
     11      220    1.078  -0.1233    1    1;
     12      220    1.067  -0.4174    1    1;
     13      220    1.065  -0.3751    1    1;
     14      220    1.066 -0.08848    1    1;
     15      400    1.009  -0.2674    1    1;
     16      220    1.097 -0.01719    1    1;
     17      220    1.091 -0.00259    1    1;
     18      400    1.034        0    1    1;
     19      220    1.066  -0.3959    1    1;
     20      400    1.037  -0.0338    1    1;
     21      220    1.059  -0.3818    1    1;
     22      220    1.081  -0.2162    1    1;
     23      220    1.062  -0.2912    1    2;
     24      220    1.054  -0.2112    1    2;
     25      220    1.057  -0.1854    1    2;
     26      220    1.051  -0.3407    1    2;
     27      220    1.066  -0.1789    1    2;
     28      220    1.066  -0.1788    1    2;
     29      220    1.097  -0.2677    1    2;
     30      220    1.097  -0.2677    1    2;
     31      400    1.021  -0.1873    1    2;
     32      400    1.021   -0.188    1    2;
     33      220     1.06  -0.1921    1    2;
     34      400    1.044    -0.18    1    2;
     35      400    1.044  -0.1802    1    2;
     36      400    1.004  -0.2447    1    2;
     37      220    1.062  -0.3081    1    2;
     38      220    1.062  -0.3081    1    2;
     39      400    1.015  -0.1648    1    2;
     40      400    1.015  -0.1646    1    2;
     41      220    1.061  -0.1483    1    2;
     42      220    1.061  -0.1485    1    2;
     43      400    1.023  -0.1207    1    2;
     44      400    1.023  -0.1209    1    2;
     45      220    1.079  -0.2843    1    2;
     46      220    1.079  -0.2843    1    2;
     47      220     1.06  -0.1901    1    2;
     48      220    1.078  -0.2669    1    2;
     49      220    1.078   -0.267    1    2;
     50      400    1.031  -0.1487    1    2;
     51      400    1.031   -0.149    1    2;
     52      220    1.053  -0.2291    1    2;
     53      220    1.055   -0.227    1    2;
     54      220    1.057  -0.1842    1    2;
     55      220    1.067  -0.2915    1    2;
     56      220     1.08 -0.08946    1    3;
     57      220    1.079  -0.1272    1    3;
     58      220    1.079  -0.1272    1    3;
     59      220    1.105 0.008147    1    3;
     60      220    1.103 -0.06723    1    3;
     61      220    1.108  0.03654    1    3;
     62      220    1.108  0.03657    1    3;
     63      220     1.11  0.01419    1    3;
     64      220    1.109  0.01128    1    3;
     65      220    1.103 -0.01795    1    3;
     66      220      1.1  -0.1507    1    3;
     67      400     1.05  -0.1144    1    3;
     68      220      1.1  -0.1205    1    3;
     69      220    1.107 -0.01463    1    3;
     70      220    1.085 -0.07509    1    3;
     71      220    1.099 -0.03206    1    3;
     72      220    1.099 -0.03206    1    3;
     73      220    1.088 -0.06341    1    3;
     74      220    1.085 -0.07877    1    3;
     75      400    1.032 -0.02919    1    3;
     76      400    1.032 -0.02929    1    3;
     77      220    1.099 -0.03957    1    3;
     78      220    1.097 -0.08677    1    3;
     79      220    1.099 -0.02228    1    3;
     80      220    1.079  -0.1263    1    3;
     81      220    1.079  -0.1263    1    3;
     82      220    1.104  0.01768    1    3;
     83      220    1.109 -0.01432    1    3;
     84      220    1.109 -0.01434    1    3;
     85      220    1.102 -0.04003    1    3;
     86      220    1.102 -0.04001    1    3;
     87      220    1.089 -0.05494    1    3;
     88      220    1.089 -0.05494    1    3;
     89      220      1.1 -0.02161    1    3;
     90      220    1.104 -0.03138    1    3;
     91      220    1.103 -0.01163    1    3;
     92      400    1.024 -0.09611    1    3;
     93      220    1.106 -0.005152    1    3;
     94      220    1.106 -0.00518    1    3;
     95      220    1.108 -0.007923    1    3;
     96      220    1.108 -0.008001    1    3;
     97      220    1.097  -0.0846    1    3;
     98      400    1.023  -0.1318    1    3;
     99      400    1.023  -0.1317    1    3;
    100      400    1.032 -0.09003    1    3;
    101      400    1.032 -0.08987    1    3;
    102      220    1.102 -0.02003    1    3;
    103      220    1.107  -0.0334    1    3;
    104      220    1.107  -0.0333    1    3;
    105      400    1.017 -0.08527    1    3;
    106      400    1.017 -0.08551    1    3;
    107      220    1.084 -0.08007    1    3;
    108      220    1.085 -0.07709    1    3;
    109      220     1.11  0.04912    1    3;
    110      220     1.11  0.04915    1    3;
    111      220    1.107  -0.2503    1    4;
    112      220    1.106  -0.2502    1    4;
    113      220    1.062  -0.4691    1    4;
    114      220    1.075  -0.4597    1    4;
    115      400   0.9834  -0.3541    1    4;
    116      400   0.9834   -0.354    1    4;
    117      220    1.073  -0.5238    1    4;
    118      220    1.067  -0.6759    1    4;
    119      220    1.067  -0.6759    1    4;
    120      220    1.051  -0.6491    1    4;
    121      220     1.07  -0.4698    1    4;
    122      220     1.07  -0.4698    1    4;
    123      220     1.11  -0.3386    1    4;
    124      220     1.11  -0.3385    1    4;
    125      220    1.106  -0.6209    1    4;
    126      220    1.106  -0.6207    1    4;
    127      400    1.033  -0.4845    1    4;
    128      400    1.033  -0.4847    1    4;
    129      220    1.045  -0.5686    1    4;
    130      220    1.035  -0.5926    1    4;
    131      220    1.099  -0.4203    1    4;
    132      220    1.099  -0.4206    1    4;
    133      400   0.9953  -0.3423    1    4;
    134      400   0.9953  -0.3422    1    4;
    135      220    1.067  -0.6746    1    4;
    136      220    1.067  -0.6746    1    4;
    137      400        1  -0.2906    1    4;
    138      400        1  -0.2906    1    4;
    139      220     1.11  -0.3437    1    4;
    140      220     1.11  -0.3439    1    4;
    141      220    1.049  -0.6163    1    4;
    142      220    1.064  -0.6794    1    4;
    143      220    1.071  -0.5498    1    4;
    144      220    1.071  -0.5498    1    4;
    145      400   0.9766  -0.5442    1    4;
    146      400   0.9766  -0.5442    1    4;
    147      220    1.044  -0.5341    1    4;
    148      220    1.044   -0.534    1    4;
    149      220    1.068  -0.5619    1    4;
    150      220    1.065  -0.4547    1    4;
    151      220    1.065  -0.4548    1    4;
    152      220    1.059  -0.3922    1    4;
    153      220    1.059  -0.3922    1    4;
    154      220    1.028  -0.5655    1    4;
    155      220    1.055  -0.4857    1    5;
    156      220     1.11  -0.5271    1    5;
    157      400    1.025   -0.494    1    5;
    158      400    1.025  -0.4939    1    5;
    159      400    1.028   -0.439    1    5;
    160      400    1.028  -0.4391    1    5;
    161      220    1.055  -0.5427    1    5;
    162      220    1.055  -0.5427    1    5;
    163      220    1.087  -0.4994    1    5;
    164      220    1.087  -0.4994    1    5;
    165      400    1.002  -0.3946    1    5;
    166      220    1.067  -0.4723    1    5;
    167      220    1.067  -0.4723    1    5;
    168      400     1.03  -0.4694    1    5;
    169      400     1.03  -0.4695    1    5;
    170      220    1.056  -0.4877    1    5;
    171      220    1.056  -0.4876    1    5;
    172      220    1.062  -0.5082    1    5;
    173      220    1.062  -0.5082    1    5;
    174      220     1.06  -0.4695    1    5;
    175      220     1.06  -0.4697    1    5;
    176      400    1.031  -0.4175    1    5;
    177      400    1.031  -0.4174    1    5;
    178      220    1.078  -0.5634    1    5;
    179      220    1.078  -0.5633    1    5;
    180      400    1.009   -0.134    2    6;
    181      220    1.107  -0.1716    3    6;
    182      400   0.9967  -0.3371    5    6;
    183      400     1.05  -0.1963    3    6;
    184      220    1.097 -0.08303    2    6;
    185      400    1.008  -0.1477    2    6;
    186      220    1.109  -0.6232    5    6;
    187      110    1.066  -0.4485    1    1;
    188      110    1.042  -0.5631    1    1;
    189      110   0.9972  -0.5151    1    1;
    190      110    1.104 -0.09921    1    1;
    191      110    1.085  -0.1202    1    1;
    192      110     1.12  -0.3854    1    1;
    193      110    1.119  -0.3832    1    1;
    194      110    1.119  -0.3883    1    1;
    195      110    1.083  -0.4666    1    1;
    196      110    1.019   -0.583    1    1;
    197      110    1.073  -0.2688    1    1;
    198      110    1.075  -0.4694    1    1;
    199      110    1.108  -0.1443    1    1;
    200      110    1.098  -0.4529    1    1;
...
   ];

SW.con = [ ...
     18     2879      400        1        0   0.5349 -0.04863     1.05     0.95   0.8753 1 1  1;
   ];

PV.con = [ ...
  10      168      220    2.381        1   0.7143        0     1.11     0.95 1  1;
  16      823      220   0.8748        1   0.5346  -0.0486     1.11     0.95 1  1;
  17     1234      220   0.8752        1   0.5348 -0.04862     1.11     0.95 1  1;
  29      511      220    0.137        1   0.4697        0     1.11     0.95 1  1;
  30      511      220    0.137        1   0.4697        0     1.11     0.95 1  1;
  31      420      400    2.381        1   0.8333        0     1.05     0.95 1  1;
  41      241      220   0.8299        1   0.4979        0     1.11     0.95 1  1;
  42      241      220   0.2905        1   0.4979        0     1.11     0.95 1  1;
  43      482      400   0.8506        1   0.4979        0     1.05     0.95 1  1;
  44      482      400   0.8506        1   0.4979        0     1.05     0.95 1  1;
  45       49      220   0.8612        1   0.4286        0     1.11     0.95 1  1;
  63      473      220    1.374        1   0.6385        0     1.11     0.95 1  1;
  64      475      220   0.9474        1   0.6547 0.004211     1.11     0.95 1  1;
  67      864      400   0.8681        1   0.5197        0     1.05     0.95 1  1;
  83      239      220   0.9414        1    0.795  -0.3724     1.11     0.95 1  1;
  84      251      220   0.8964        1    0.757  -0.3546     1.11     0.95 1  1;
  85      133      220   0.9023        1   0.9398  -0.3759     1.11     0.95 1  1;
  86      133      220   0.9023        1   0.9398  -0.3759     1.11     0.95 1  1;
  93      123      220   0.9756        1   0.7317  0.04065     1.11     0.95 1  1;
  95      105      220    1.048        1   0.6476   0.2571     1.11     0.95 1  1;
  97      105      220   0.8343        1   0.6476   0.2571     1.11     0.95 1  1;
 103      239      220   0.6695        1   0.7406  -0.3431     1.11     0.95 1  1;
 104      490      220   0.4592        1   0.7735  -0.3612     1.11     0.95 1  1;
 105      502      400   0.8566        1   0.7032  -0.3287     1.05     0.95 1  1;
 109      277      220   0.9025        1   0.2347        0     1.11     0.95 1  1;
 110      280      220   0.8929        1   0.2321        0     1.11     0.95 1  1;
 111      401      220   0.8978        1   0.6733        0     1.11     0.95 1  1;
 123       98      220   0.2041        1   0.4082        0     1.11     0.95 1  1;
 124      132      220    0.947        1   0.6818        0     1.11     0.95 1  1;
 125      654      220    0.107        1   0.5505        0     1.11     0.95 1  1;
 127      540      400    1.278        1   0.6667        0     1.05     0.95 1  1;
 131      696      220   0.9273        1   0.5172        0     1.11     0.95 1  1;
 132      732      220  0.09563        1   0.6557        0     1.11     0.95 1  1;
 139      714      220   0.5724        1   0.5042        0     1.11     0.95 1  1;
 140      240      220   0.8333        1      0.5        0     1.11     0.95 1  1;
 176      430      400    1.395        1   0.5116  -0.2791     1.05     0.95 1  1;
 177      430      400   0.4651        1   0.5116  -0.2791     1.05     0.95 1  1;
 180     7485      400        0        1    13.36   -13.36     1.05     0.95 1  1;
 181      210      220   0.8333        1    476.2   -476.2     1.11     0.95 1  1;
 182 1.346e+04      400  0.02284        1    7.427   -7.427     1.05     0.95 1  1;
 184     8353      220        0        1    11.97   -11.97     1.11     0.95 1  1;
 185 1.425e+04      400        0        1    7.016   -7.016     1.05     0.95 1  1;
 186     7401      220        0        1    13.51   -13.51     1.11     0.95 1  1;
 192      114      110   0.8333        1   0.4386        0     1.12     0.95 1  1;
 196        1      110      0.9        1        1        0     1.12     0.95 1  1;
 198        1      110      0.8        1        1        0     1.12     0.95 1  1;
 205       18      110   0.8333        1   0.5556        0     1.12     0.95 1  1;
 213       13      110   0.8462        1   0.6154        0     1.12     0.95 1  1;
 264        3      110   0.8333        1   0.6667        0     1.12     0.95 1  1;
 269        7      110   0.8571        1   0.7143        0     1.12     0.95 1  1;
 277       84      110   0.8333        1      0.5        0     1.12     0.95 1  1;
 278       72      110   0.8333        1   0.5556        0     1.12     0.95 1  1;
 279       72      110   0.8333        1   0.5556        0     1.12     0.95 1  1;
 281      144      110   0.8333        1    0.625        0     1.12     0.95 1  1;
 282       48      110   0.8333        1   0.8333        0     1.12     0.95 1  1;
 289        3      110   0.8333        1        1        0     1.12     0.95 1  1;
 294        2      110        1        1      0.5        0     1.12     0.95 1  1;
 314        2      110     0.75        1      0.5        0     1.12     0.95 1  1;
 328       53      110   0.8302        1   0.3962        0     1.12     0.95 1  1;
 329       53      110   0.8302        1   0.3962        0     1.12     0.95 1  1;
 330       53      110   0.8302        1   0.3962        0     1.12     0.95 1  1;
 331       52      110   0.8269        1   0.4038        0     1.12     0.95 1  1;
 334        2      110     0.75        1      0.5        0     1.12     0.95 1  1;
 346      180      110    1.111        1   0.6667        0     1.12     0.95 1  1;
 347       12      110   0.8333        1     1.25        0     1.12     0.95 1  1;
 359        2      110     0.75        1      0.5        0     1.12     0.95 1  1;
 365        6      110     0.85        1      0.5        0     1.12     0.95 1  1;
 382       10      110      0.8        1      0.5        0     1.12     0.95 1  1;
 383       10      110      0.8        1      0.5        0     1.12     0.95 1  1;
 385        7      110   0.8571        1   0.5714        0     1.12     0.95 1  1;
 390        5      110      0.9        1      0.6        0     1.12     0.95 1  1;
 395       12      110   0.8333        1   0.6667        0     1.12     0.95 1  1;
 404        4      110     0.75        1     0.75        0     1.12     0.95 1  1;
 426        4      110      0.8        1      0.5        0     1.12     0.95 1  1;
 444        1      110        1        1        1        0     1.12     0.95 1  1;
 451        5      110      0.9        1      0.6        0     1.12     0.95 1  1;
 482        1      110        1        1        1        0     1.12     0.95 1  1;
 492        2      110        1        1      0.5        0     1.12     0.95 1  1;
 493      281      110   0.8327        1   0.4626        0     1.12     0.95 1  1;
 494      281      110   0.8327        1   0.4626        0     1.12     0.95 1  1;
 514      138      110   0.8333        1   0.6522        0     1.12     0.95 1  1;
 515      138      110   0.8333        1   0.6522        0     1.12     0.95 1  1;
 525        7      110   0.8571        1   0.5714        0     1.12     0.95 1  1;
 536        7      110   0.8571        1   0.8571        0     1.12     0.95 1  1;
 537        4      110    0.875        1     0.75        0     1.12     0.95 1  1;
 556        3      110      0.9        1   0.3333        0     1.12     0.95 1  1;
 580        2      110      0.8        1      0.5        0     1.12     0.95 1  1;
 584        3      110      0.9        1   0.6667        0     1.12     0.95 1  1;
 585        5      110      0.8        1      0.4        0     1.12     0.95 1  1;
 607        1      110      0.8        1        0        0     1.12     0.95 1  1;
 612      256      110   0.5975        1   0.4688        0     1.12     0.95 1  1;
 613      256      110   0.7812        1   0.4688        0     1.12     0.95 1  1;
 615        2      110      0.7        1      0.5        0     1.12     0.95 1  1;
 623        9      110   0.8444        1   0.5556        0     1.12     0.95 1  1;
 639       12      110      0.8        1   0.3333        0     1.12     0.95 1  1;
 651        6      110   0.7833        1   0.3333        0     1.12     0.95 1  1;
 654        2      110      0.7        1      0.5        0     1.12     0.95 1  1;
 664        7      110   0.8857        1   0.8571        0     1.12     0.95 1  1;
 670        3      110      0.9        1   0.6667        0     1.12     0.95 1  1;
 674        1      110        1        1        0        0     1.12     0.95 1  1;
 688      242      110   0.2893        1   0.4959        0     1.12     0.95 1  1;
 692        2      110      0.7        1      0.5        0     1.12     0.95 1  1;
 699        5      110     0.76        1      0.4        0     1.12     0.95 1  1;
 712        1      110      1.2        1        1        0     1.12     0.95 1  1;
 730        8      110   0.8625        1    0.375        0     1.12     0.95 1  1;
 732        1      110      1.1        1        1        0     1.12     0.95 1  1;
 735        5      110     0.82        1      0.4        0     1.12     0.95 1  1;
 740        5      110      0.8        1      0.2        0     1.12     0.95 1  1;
 744      161      110   0.8323        1   0.3727        0     1.12     0.95 1  1;
 754       54      110    1.481        1   0.5556        0     1.12     0.95 1  1;
 755      110      110   0.7727        1   0.7273        0     1.12     0.95 1  1;
 760        4      110    0.775        1      0.5        0     1.12     0.95 1  1;
 766        3      110      0.7        1   0.3333        0     1.12     0.95 1  1;
 784        1      110      0.7        1        0        0     1.12     0.95 1  1;
 790       60      110     0.83        1   0.5833   0.5833     1.12     0.95 1  1;
 795        2      110    0.945        1      0.5      0.5     1.12     0.95 1  1;
 798        4      110   0.7475        1     0.75     0.75     1.12     0.95 1  1;
 814       54      110   0.8319        1   0.7778        0     1.12     0.95 1  1;
 834      110      110      0.5        1   0.7545        0     1.12     0.95 1  1;
 878        4      110   0.7475        1        0        0     1.12     0.95 1  1;
 884        3      110     0.83        1        0        0     1.12     0.95 1  1;
 892       38      110   0.8387        1    1.105   0.1579     1.12     0.95 1  1;
 895       11      110   0.8145        1   0.6364   0.6364     1.12     0.95 1  1;
 901        4      110     0.92        1      0.5      0.5     1.12     0.95 1  1;
 910        6      110   0.7633        1      0.5      0.5     1.12     0.95 1  1;
 911      415      110   0.8916        1   0.5398        0     1.12     0.95 1  1;
 912      415      110   0.8916        1   0.5398        0     1.12     0.95 1  1;
 914       19      110   0.8384        1   0.5263   0.5263     1.12     0.95 1  1;
 917        3      110   0.6967        1        0        0     1.12     0.95 1  1;
 919       26      110   0.8427        1   0.4615   0.4615     1.12     0.95 1  1;
 920        2      110    0.995        1        0        0     1.12     0.95 1  1;
 929       77      110   0.8277        1   0.6494   0.3766     1.12     0.95 1  1;
 959        3      110     0.83        1   0.3333   0.3333     1.12     0.95 1  1;
 968        1      110      0.7        1        0        0     1.12     0.95 1  1;
 993        5      110    0.796        1      0.2      0.2     1.12     0.95 1  1;
 994        2      110    0.995        1      0.5      0.5     1.12     0.95 1  1;
 995       60      110   0.3333        1   0.6333        0     1.12     0.95 1  1;
 996       60      110   0.3333        1   0.6333        0     1.12     0.95 1  1;
 997       60      110   0.3333        1   0.6333        0     1.12     0.95 1  1;
1004        5      110    0.856        1      0.6      0.6     1.12     0.95 1  1;
1024      100      110    0.001        1        0        0     1.12     0.95 1  1;
1027       30      110     0.83        1   0.4333   0.4333     1.12     0.95 1  1;
1028        4      110   0.7475        1     0.75     0.75     1.12     0.95 1  1;
1029       30      110     0.83        1   0.4667   0.4667     1.12     0.95 1  1;
1053       72      110     0.83        1   0.7361        0     1.12     0.95 1  1;
1054       36      110     0.83        1   0.8611        0     1.12     0.95 1  1;
1105       10      110    0.797        1        1        1     1.12     0.95 1  1;
1106       28      110   0.8182        1   0.4643   0.4643     1.12     0.95 1  1;
1107       13      110   0.8123        1   0.2308   0.2308     1.12     0.95 1  1;
1138       54      110     0.83        1   0.7593        0     1.12     0.95 1  1;
1140      252      110   0.9127        1   0.7897  -0.3452     1.12     0.95 1  1;
1141      251      110   0.3782        1    0.757  -0.3546     1.12     0.95 1  1;
1175       45      110   0.8409        1   0.4444   0.4444     1.12     0.95 1  1;
1182      133      110   0.3008        1   0.9398  -0.3759     1.12     0.95 1  1;
1183      133      110   0.9023        1   0.9398  -0.3759     1.12     0.95 1  1;
1184      133      110   0.9023        1   0.9398  -0.3759     1.12     0.95 1  1;
1191      128      110   0.8325        1    1.008  -0.3672     1.12     0.95 1  1;
1192      123      110    2.033        1    1.016  -0.4065     1.12     0.95 1  1;
1201      120      110   0.8299        1     0.75        0     1.12     0.95 1  1;
1202      120      110   0.8299        1     0.75        0     1.12     0.95 1  1;
1203      120      110   0.8299        1     0.75        0     1.12     0.95 1  1;
1232       62      110   0.8353        1   0.6613        0     1.12     0.95 1  1;
1233       18      110     0.83        1    2.278        0     1.12     0.95 1  1;
1244       23      110   0.8226        1   0.8696   0.8696     1.12     0.95 1  1;
1247       19      110   0.8384        1   0.6316   0.6316     1.12     0.95 1  1;
1250      237      110    0.832        1   0.6371        0     1.12     0.95 1  1;
1268        1      110      0.5        1        0        0     1.12     0.95 1  1;
1316        1      110        1        1        0        0     1.12     0.95 1  1;
1325        2      110    0.695        1        0        0     1.12     0.95 1  1;
1349        2      110    0.745        1        0        0     1.12     0.95 1  1;
1356        1      110        1        1        2        2     1.12     0.95 1  1;
1359        1      110      0.8        1        1        1     1.12     0.95 1  1;
1393       15      110     0.85        1   0.7333        0     1.12     0.95 1  1;
1403        5      110    0.856        1      0.2      0.2     1.12     0.95 1  1;
1416      246      110    1.508        1   0.7317  0.04065     1.12     0.95 1  1;
1417      123      110   0.9756        1   0.9756  0.04065     1.12     0.95 1  1;
1418      123      110   0.1626        1   0.7317  0.04065     1.12     0.95 1  1;
1426      106      110     4.67        1   0.6415   0.2547     1.12     0.95 1  1;
1429      100      110    0.002        1        0        0     1.12     0.95 1  1;
1469        1      110      0.6        1        0        0     1.12     0.95 1  1;
1475        3      110   0.6967        1   0.6667   0.6667     1.12     0.95 1  1;
1504       37      110   0.8424        1  0.05405  0.05405     1.12     0.95 1  1;
1505       59      110   0.8271        1   0.0678   0.0678     1.12     0.95 1  1;
1514        3      110   0.7633        1   0.3333   0.3333     1.12     0.95 1  1;
1534      100      110    0.003        1        0        0     1.12     0.95 1  1;
1536      251      110   0.6375        1    0.757  -0.3546     1.12     0.95 1  1;
1537      255      110   0.8824        1   0.7961  -0.3725     1.12     0.95 1  1;
1538      255      110   0.8431        1   0.7451   -0.349     1.12     0.95 1  1;
1542       11      110   0.8145        1   0.2727   0.2727     1.12     0.95 1  1;
1543        1      110      1.2        1        0        0     1.12     0.95 1  1;
1550        2      110    0.895        1      0.5      0.5     1.12     0.95 1  1;
1566       66      110   0.8298        1   0.7121    0.303     1.12     0.95 1  1;
1587       77      110   0.8278        1   0.3506   0.3506     1.12     0.95 1  1;
1600       21      110     0.83        1   0.1429   0.1429     1.12     0.95 1  1;
1602      144      110   0.8333        1    0.625        0     1.12     0.95 1  1;
1603      144      110   0.8333        1    0.625        0     1.12     0.95 1  1;
1609      100      110    0.003        1        0        0     1.12     0.95 1  1;
1617        2      110        1        1        0        0     1.12     0.95 1  1;
1620        2      110      0.8        1        0        0     1.12     0.95 1  1;
1627        2      110      0.8        1        0        0     1.12     0.95 1  1;
...
   ];

PQ.con = [ ...
  10 100      220   0.1223     0.09     1.11     0.95 0 1;
  16 100      220   0.5488        1     1.11     0.95 0 1;
  17 100      220     0.77      1.5     1.11     0.95 0 1;
  18 100      400     1.53      3.5     1.05     0.95 0 1;
  29 100      220   0.2598      0.6     1.11     0.95 0 1;
  30 100      220   0.2598      0.6     1.11     0.95 0 1;
  31 100      400   0.2098      0.5     1.05     0.95 0 1;
  41 100      220   0.1199      0.3     1.11     0.95 0 1;
  42 100      220   0.1199      0.3     1.11     0.95 0 1;
  43 100      400   0.2398      0.6     1.05     0.95 0 1;
  44 100      400   0.2398      0.6     1.05     0.95 0 1;
  45 100      220    1.598     0.75     1.11     0.95 0 1;
  57 100      220   0.2298   0.1096     1.11     0.95 0 1;
  58 100      220   0.2198   0.0579     1.11     0.95 0 1;
  63 100      220   0.3737   0.5269     1.11     0.95 0 1;
  64 100      220   0.3537   0.5532     1.11     0.95 0 1;
  65 100      220   0.1339   0.0202     1.11     0.95 0 1;
  67 100      400    0.604    0.921     1.05     0.95 0 1;
  83 100      220   0.1599   0.2297     1.11     0.95 0 1;
  84 100      220   0.1579   0.2227     1.11     0.95 0 1;
  85 100      220   0.0999   0.1701     1.11     0.95 0 1;
  86 100      220   0.0999   0.1666     1.11     0.95 0 1;
  87 100      220   0.1109   0.1622     1.11     0.95 0 1;
  93 100      220   0.0999   0.1639     1.11     0.95 0 1;
  95 100      220   0.0689   0.0815     1.11     0.95 0 1;
  97 100      220   0.0869   0.0526     1.11     0.95 0 1;
 103 100      220   0.1809   0.2376     1.11     0.95 0 1;
 104 100      220   0.3368   0.4611     1.11     0.95 0 1;
 105 100      400   0.3378   0.6295     1.05     0.95 0 1;
 109 100      220     0.01   0.2236     1.11     0.95 0 1;
 110 100      220     0.01   0.2218     1.11     0.95 0 1;
 111 100      220   0.2649     0.18     1.11     0.95 0 1;
 123 100      220    0.055     0.07     1.11     0.95 0 1;
 124 100      220   0.0879     0.17     1.11     0.95 0 1;
 125 100      220    0.357    0.183     1.11     0.95 0 1;
 126 100      220   0.2528    0.159     1.11     0.95 0 1;
 127 100      400   0.2571    0.153     1.05     0.95 0 1;
 131 100      220   0.6867      0.7     1.11     0.95 0 1;
 132 100      220     0.33     0.45     1.11     0.95 0 1;
 139 100      220    0.332    0.226     1.11     0.95 0 1;
 140 100      220   0.2923    0.196     1.11     0.95 0 1;
 176 100      400        0      0.4     1.05     0.95 0 1;
 177 100      400        0      0.4     1.05     0.95 0 1;
 180 100      400    3.399    0.496     1.05     0.95 0 1;
 183 100      400      1.5        0     1.05     0.95 0 1;
 184 100      220    3.173    0.503     1.11     0.95 0 1;
 185 100      400    3.624    0.367     1.05     0.95 0 1;
 186 100      220   0.3333     0.01     1.11     0.95 0 1;
 187 100      110   0.0712    0.015     1.12     0.95 0 1;
 188 100      110   0.0763     0.01     1.12     0.95 0 1;
 189 100      110   0.0977    0.087     1.12     0.95 0 1;
 190 100      110   0.0612    0.015     1.12     0.95 0 1;
 191 100      110   0.0612    0.016     1.12     0.95 0 1;
 192 100      110   0.3056     0.12     1.12     0.95 0 1;
 193 100      110   0.1528     0.03     1.12     0.95 0 1;
 195 100      110   0.0814     0.02     1.12     0.95 0 1;
 196 100      110   0.0692    0.015     1.12     0.95 0 1;
 197 100      110   0.0692    0.015     1.12     0.95 0 1;
 198 100      110   0.1232    0.017     1.12     0.95 0 1;
 199 100      110   0.0143    0.005     1.12     0.95 0 1;
 200 100      110   0.0108    0.005     1.12     0.95 0 1;
 201 100      110   0.0561    0.005     1.12     0.95 0 1;
 202 100      110   0.1834     0.02     1.12     0.95 0 1;
 203 100      110    0.111    0.016     1.12     0.95 0 1;
 205 100      110   0.0692     0.02     1.12     0.95 0 1;
 206 100      110    0.112     0.01     1.12     0.95 0 1;
 207 100      110   0.0732    0.016     1.12     0.95 0 1;
 208 100      110  -0.0732   -0.045     1.12     0.95 0 1;
 209 100      110   0.0936    0.008     1.12     0.95 0 1;
 210 100      110   0.1518    0.044     1.12     0.95 0 1;
 211 100      110   0.0875    0.002     1.12     0.95 0 1;
 212 100      110   0.1018    0.015     1.12     0.95 0 1;
 213 100      110  -0.0204    -0.01     1.12     0.95 0 1;
 214 100      110   0.1202    0.005     1.12     0.95 0 1;
 215 100      110   0.0692     0.02     1.12     0.95 0 1;
 216 100      110   0.0885    0.005     1.12     0.95 0 1;
 217 100      110   0.0194    0.004     1.12     0.95 0 1;
 218 100      110   0.1222    0.015     1.12     0.95 0 1;
 219 100      110   0.0255    0.005     1.12     0.95 0 1;
 220 100      110   0.0255    0.005     1.12     0.95 0 1;
 221 100      110   0.0408    0.005     1.12     0.95 0 1;
 222 100      110   0.0653    0.004     1.12     0.95 0 1;
 223 100      110   0.1865     0.04     1.12     0.95 0 1;
 224 100      110   0.1986    0.025     1.12     0.95 0 1;
 225 100      110    0.173     0.02     1.12     0.95 0 1;
 226 100      110   0.2444    0.015     1.12     0.95 0 1;
 227 100      110   0.0561     0.01     1.12     0.95 0 1;
 228 100      110    0.114    0.011     1.12     0.95 0 1;
 229 100      110     0.11    0.027     1.12     0.95 0 1;
 230 100      110   0.0763     0.01     1.12     0.95 0 1;
 231 100      110   0.0794    0.011     1.12     0.95 0 1;
 232 100      110   0.0794    0.011     1.12     0.95 0 1;
 233 100      110   0.0184    0.008     1.12     0.95 0 1;
 234 100      110   0.3346     0.28     1.12     0.95 0 1;
 235 100      110   0.3376     0.28     1.12     0.95 0 1;
 236 100      110   0.0102    0.005     1.12     0.95 0 1;
 237 100      110   0.1395    0.017     1.12     0.95 0 1;
 238 100      110   0.0998     0.01     1.12     0.95 0 1;
 239 100      110   0.1528    0.015     1.12     0.95 0 1;
 240 100      110    0.112    0.015     1.12     0.95 0 1;
 241 100      110   0.1018     0.03     1.12     0.95 0 1;
 242 100      110   0.0122    0.001     1.12     0.95 0 1;
 244 100      110   0.0102        0     1.12     0.95 0 1;
 245 100      110   0.1212    0.054     1.12     0.95 0 1;
 246 100      110  -0.0814   -0.036     1.12     0.95 0 1;
 247 100      110    0.112    0.015     1.12     0.95 0 1;
 248 100      110   0.0306    0.005     1.12     0.95 0 1;
 249 100      110   0.0916        0     1.12     0.95 0 1;
 250 100      110   0.2771     0.03     1.12     0.95 0 1;
 251 100      110   0.2138     0.04     1.12     0.95 0 1;
 252 100      110   0.2138     0.04     1.12     0.95 0 1;
 253 100      110   0.1487    0.043     1.12     0.95 0 1;
 254 100      110   0.1986    0.035     1.12     0.95 0 1;
 255 100      110   0.1018     0.01     1.12     0.95 0 1;
 256 100      110   0.0561        0     1.12     0.95 0 1;
 257 100      110   0.0712    0.002     1.12     0.95 0 1;
 258 100      110   0.0408    0.003     1.12     0.95 0 1;
 259 100      110   0.2087    0.042     1.12     0.95 0 1;
 260 100      110   0.1069    0.015     1.12     0.95 0 1;
 261 100      110   0.0794     0.02     1.12     0.95 0 1;
 262 100      110    0.002        0     1.12     0.95 0 1;
 263 100      110    0.053     0.01     1.12     0.95 0 1;
 264 100      110   0.1222     0.01     1.12     0.95 0 1;
 265 100      110   0.1222     0.01     1.12     0.95 0 1;
 266 100      110   0.0834    0.016     1.12     0.95 0 1;
 267 100      110   0.1038     0.03     1.12     0.95 0 1;
 268 100      110   0.1487    0.037     1.12     0.95 0 1;
 269 100      110   0.1528     0.04     1.12     0.95 0 1;
 270 100      110   0.0367    0.005     1.12     0.95 0 1;
 271 100      110   0.0367    0.005     1.12     0.95 0 1;
 272 100      110   0.0926     0.03     1.12     0.95 0 1;
 273 100      110   0.1293    0.037     1.12     0.95 0 1;
 274 100      110   0.2567    0.074     1.12     0.95 0 1;
 275 100      110   0.2322    0.067     1.12     0.95 0 1;
 276 100      110   0.1426    0.051     1.12     0.95 0 1;
 277 100      110   0.5214    0.204     1.12     0.95 0 1;
 278 100      110   0.2495    0.097     1.12     0.95 0 1;
 279 100      110   0.2495    0.097     1.12     0.95 0 1;
 281 100      110   0.3066    0.119     1.12     0.95 0 1;
 282 100      110   0.1314    0.051     1.12     0.95 0 1;
 283 100      110   0.1702    0.002     1.12     0.95 0 1;
 284 100      110   0.0255    0.005     1.12     0.95 0 1;
 285 100      110   0.0814    0.015     1.12     0.95 0 1;
 286 100      110   0.2975    0.041     1.12     0.95 0 1;
 287 100      110   0.1222     0.04     1.12     0.95 0 1;
 288 100      110   0.1314    0.038     1.12     0.95 0 1;
 289 100      110   0.2128    0.061     1.12     0.95 0 1;
 290 100      110   0.1732     0.03     1.12     0.95 0 1;
 291 100      110   0.1681    0.054     1.12     0.95 0 1;
 292 100      110   0.1732     0.05     1.12     0.95 0 1;
 293 100      110   0.0743    0.021     1.12     0.95 0 1;
 294 100      110   0.1528     0.03     1.12     0.95 0 1;
 295 100      110   0.2128    0.034     1.12     0.95 0 1;
 296 100      110   0.1763    0.051     1.12     0.95 0 1;
 297 100      110   0.0855     0.02     1.12     0.95 0 1;
 298 100      110   0.0702    0.016     1.12     0.95 0 1;
 299 100      110   0.4806    0.138     1.12     0.95 0 1;
 300 100      110   0.2138     0.09     1.12     0.95 0 1;
 301 100      110   0.0622    0.013     1.12     0.95 0 1;
 302 100      110   0.0612    0.013     1.12     0.95 0 1;
 303 100      110   0.0632    0.005     1.12     0.95 0 1;
 304 100      110   0.1783    0.051     1.12     0.95 0 1;
 305 100      110   0.0753    0.011     1.12     0.95 0 1;
 306 100      110   0.2138     0.04     1.12     0.95 0 1;
 307 100      110   0.1834     0.04     1.12     0.95 0 1;
 308 100      110    0.051        0     1.12     0.95 0 1;
 311 100      110    0.324    0.057     1.12     0.95 0 1;
 313 100      110   0.0712    0.005     1.12     0.95 0 1;
 314 100      110   0.0773    0.015     1.12     0.95 0 1;
 315 100      110   0.0947        0     1.12     0.95 0 1;
 316 100      110    0.162     0.04     1.12     0.95 0 1;
 317 100      110   0.0712     0.02     1.12     0.95 0 1;
 318 100      110   0.0612     0.02     1.12     0.95 0 1;
 319 100      110   0.0081    0.003     1.12     0.95 0 1;
 320 100      110   0.0712     0.01     1.12     0.95 0 1;
 323 100      110   0.0998    0.018     1.12     0.95 0 1;
 324 100      110    0.112    0.016     1.12     0.95 0 1;
 325 100      110   0.1365    0.003     1.12     0.95 0 1;
 326 100      110   0.0662    0.012     1.12     0.95 0 1;
 327 100      110   0.0408    0.001     1.12     0.95 0 1;
 328 100      110   0.4583     0.23     1.12     0.95 0 1;
 329 100      110   0.4583     0.23     1.12     0.95 0 1;
 330 100      110   0.4836     0.22     1.12     0.95 0 1;
 331 100      110   0.4836     0.22     1.12     0.95 0 1;
 333 100      110   0.0947    0.004     1.12     0.95 0 1;
 334 100      110   0.1681    0.007     1.12     0.95 0 1;
 335 100      110   0.0408     0.01     1.12     0.95 0 1;
 337 100      110   0.1783    0.055     1.12     0.95 0 1;
 338 100      110   0.0255    0.012     1.12     0.95 0 1;
 339 100      110   0.0398    0.017     1.12     0.95 0 1;
 340 100      110    0.112    0.015     1.12     0.95 0 1;
 341 100      110     0.11    0.001     1.12     0.95 0 1;
 342 100      110    0.163    0.016     1.12     0.95 0 1;
 343 100      110   0.0102    0.005     1.12     0.95 0 1;
 344 100      110   0.1324     0.05     1.12     0.95 0 1;
 345 100      110   0.1773     0.04     1.12     0.95 0 1;
 346 100      110   0.1834     0.13     1.12     0.95 0 1;
 347 100      110   0.0814    0.045     1.12     0.95 0 1;
 348 100      110   0.0204    0.005     1.12     0.95 0 1;
 349 100      110   0.2037    0.045     1.12     0.95 0 1;
...
   ];

Line.con = [ ...
  16    1 100      220 60 0         0  0.00155  0.01169   0.0182        0        0      1.6      1.6      1.6  1;
 355    1 100      110 60 0       0.5  0.00157  0.06612        0     1.01        0      1.6      1.6      1.6  1;
  17    2 100      220 60 0         0  0.00155  0.01169   0.0182        0        0      1.6      1.6      1.6  1;
 354    2 100      110 60 0       0.5  0.00157  0.06612        0    1.022        0      1.6      1.6      1.6  1;
  10    3 100      220 60 0         0  0.01068  0.07895   0.1226        0        0     2.74     2.74     2.74  1;
 219    3 100      110 60 0       0.5  0.00165  0.06736        0    1.027        0      1.6      1.6      1.6  1;
 220    3 100      110 60 0       0.5  0.00165  0.06736        0   0.9955        0      1.6      1.6      1.6  1;
   7    4 100      220 60 0         0  0.01674  0.09711   0.1442        0        0     3.77     3.77     3.77  1;
  11    4 100      220 60 0         0  0.00293  0.01599  0.02478        0        0     3.35     3.35     3.35  1;
  14    4 100      220 60 0         0  0.00442  0.03223  0.04985        0        0     4.64     4.64     4.64  1;
  16    4 100      220 60 0         0  0.00888  0.06665  0.08896        0        0     3.77     3.77     3.77  1;
  22    4 100      220 60 0         0  0.00783    0.043  0.04962        0        0      3.5      3.5      3.5  1;
 245    4 100      110 60 0       0.5  0.00165  0.06901        0    1.059        0      1.6      1.6      1.6  1;
 246    4 100      110 60 0       0.5  0.00165  0.06901        0    1.045        0      1.6      1.6      1.6  1;
   5    6 100      220 60 0      0.55  0.00064   0.0305        0    1.044     -0.6        4        4        4  1;
   7    5 100      220 60 0         0  0.00525  0.03988  0.06195        0        0     3.81     3.81     3.81  1;
  10    5 100      220 60 0         0  0.01459   0.1122   0.1655        0        0     3.81     3.81     3.81  1;
 309    5 100      110 60 0       0.5  0.00165   0.0686        0    1.065        0      1.6      1.6      1.6  1;
 309    5 100      110 60 0       0.5  0.00165   0.0686        0    1.052        0      1.6      1.6      1.6  1;
   6    8 100      400 60 0         0  0.00112  0.01329   0.3412        0        0    13.16    13.16    13.16  1;
   6    9 100      400 60 0         0  0.00299  0.03675   0.9184        0        0    14.27    14.27    14.27  1;
  15    6 100      400 60 0         0  0.00298  0.03417    0.935        0        0    14.27    14.27    14.27  1;
  31    6 100      400 60 0         0   0.0015  0.01506   0.4032        0        0    13.85    13.85    13.85  1;
 310    6 100      110 60 0     0.275   0.0015  0.06188        0    1.061        0      2.5      2.5      2.5  1;
  12    7 100      220 60 0         0  0.01211  0.08742   0.1402        0        0     3.81     3.81     3.81  1;
  13    7 100      220 60 0         0  0.00205  0.01326  0.02243        0        0     3.35     3.35     3.35  1;
  19    7 100      220 60 0         0   0.0057   0.0407  0.06021        0        0     3.23     3.23     3.23  1;
  21    7 100      220 60 0         0  0.00093  0.00651  0.01113        0        0      1.6      1.6      1.6  1;
  29    7 100      220 60 0         0  0.01269  0.07498   0.1302        0        0     3.62     3.62     3.62  1;
 321    7 100      110 60 0       0.5  0.00041  0.03368        0    1.032        0      2.5      2.5      2.5  1;
 322    7 100      110 60 0       0.5  0.00165  0.06775        0    1.057        0      1.6      1.6      1.6  1;
   8   18 100      400 60 0         0  0.00336  0.03977    1.022        0        0    13.16    13.16    13.16  1;
 332    9 100      110 60 0     0.275  0.00087  0.05244 -0.02144    1.078        0      3.3      3.3      3.3  1;
 171   10 100      220 60 0         0  0.01409   0.1041   0.1597        0        0     4.64     4.64     4.64  1;
 346   10 100      110 60 0       0.5  0.00124  0.06839        0    1.005        0      1.6      1.6      1.6  1;
 347   10 100      110 60 0       0.5  0.00124  0.06839        0    1.024        0      1.6      1.6      1.6  1;
  16   11 100      220 60 0         0   0.0057  0.03952  0.07553        0        0     4.64     4.64     4.64  1;
  17   11 100      220 60 0         0   0.0057  0.03952  0.07553        0        0     4.64     4.64     4.64  1;
 111   11 100      220 60 0         0  0.01068  0.06196  0.09496        0        0     3.94     3.94     3.94  1;
 352   11 100      110 60 0       0.5  0.00165  0.06901        0    1.041        0      1.6      1.6      1.6  1;
 353   11 100      110 60 0       0.5  0.00165  0.06901        0    1.056        0      1.6      1.6      1.6  1;
 140   12 100      220 60 0         0  0.01465   0.1059   0.1709        0        0     4.64     4.64     4.64  1;
 359   12 100      110 60 0       0.5  0.00155  0.06612        0     1.04        0      1.6      1.6      1.6  1;
 360   12 100      110 60 0       0.5  0.00157  0.06612        0    1.059        0      1.6      1.6      1.6  1;
  29   13 100      220 60 0         0  0.01345  0.08114   0.1411        0        0     3.39     3.39     3.39  1;
 365   13 100      110 60 0       0.5  0.00165  0.06901        0    1.031        0      1.6      1.6      1.6  1;
 366   13 100      110 60 0       0.5  0.00165  0.06901        0   0.9872        0      1.6      1.6      1.6  1;
  17   14 100      220 60 0         0  0.00384  0.02853  0.04588        0        0     4.64     4.64     4.64  1;
 367   14 100      110 60 0       0.5  0.00157  0.06798        0    1.066        0      1.6      1.6      1.6  1;
 368   14 100      110 60 0       0.5  0.00165  0.06901        0    1.078        0      1.6      1.6      1.6  1;
  18   15 100      400 60 0         0  0.00358  0.04262    1.094        0        0    16.62    16.62    16.62  1;
  15  165 100      400 60 0         0  0.00207  0.02474    0.664        0        0     8.31     8.31     8.31  1;
 374   15 100      110 60 0     0.275   0.0015  0.06188        0     1.15        0      2.5      2.5      2.5  1;
  16   18 100      220 60 0      0.55  0.00036  0.02519        0     1.06        0        5        5        5  1;
  16   73 100      220 60 0         0  0.00909   0.0624   0.1114        0        0     4.64     4.64     4.64  1;
  17   18 100      220 60 0      0.55  0.00036  0.02519        0    1.061        0        5        5        5  1;
  17   74 100      220 60 0         0  0.00868  0.06405  0.09699        0        0     4.64     4.64     4.64  1;
  20   18 100      400 60 0         0  0.00063  0.00749   0.3923        0        0    14.27    14.27    14.27  1;
  75   18 100      400 60 0         0  0.00219  0.02369   0.5958        0        0    14.34    14.34    14.34  1;
  18   76 100      400 60 0         0  0.00137  0.01625   0.4118        0        0    16.62    16.62    16.62  1;
  18  101 100      400 60 0         0  0.00231  0.02769   0.7014        0        0    16.62    16.62    16.62  1;
 124   19 100      220 60 0         0  0.01696   0.1237    0.197        0        0     4.64     4.64     4.64  1;
 425   19 100      110 60 0       0.5  0.00165  0.06818        0    1.024        0      1.6      1.6      1.6  1;
  67   20 100      400 60 0         0  0.00331  0.03425   0.8589        0        0     8.31     8.31     8.31  1;
 447   20 100      110 60 0     0.275  0.00137  0.06119 -0.01504     1.08        0      2.5      2.5      2.5  1;
 448   20 100      110 60 0     0.275  0.00137  0.06119 -0.01504    1.092        0      2.5      2.5      2.5  1;
 502   21 100      110 60 0       0.5  0.00165  0.07107        0   0.9922        0      1.6      1.6      1.6  1;
 112   22 100      220 60 0         0  0.00465  0.02618  0.02962        0        0     3.62     3.62     3.62  1;
 526   22 100      110 60 0       0.5  0.00165  0.06901        0    1.069        0      1.6      1.6      1.6  1;
 527   22 100      110 60 0       0.5  0.00165  0.06901        0    1.042        0      1.6      1.6      1.6  1;
  37   23 100      220 60 0         0  0.01163  0.07031   0.1058        0        0     3.94     3.94     3.94  1;
  46   23 100      220 60 0         0  0.00837  0.04868  0.07348        0        0     4.57     4.57     4.57  1;
  53   23 100      220 60 0         0  0.01122  0.06558  0.09835        0        0     2.74     2.74     2.74  1;
 540   23 100      110 60 0       0.5   0.0014   0.0668        0    1.018        0      1.6      1.6      1.6  1;
  54   24 100      220 60 0         0  0.00769  0.05727  0.08789        0        0      1.6      1.6      1.6  1;
 545   24 100      110 60 0       0.5  0.00151  0.06715        0    1.016        0      1.6      1.6      1.6  1;
  41   25 100      220 60 0         0  0.00556  0.04145   0.0636        0        0     2.74     2.74     2.74  1;
  53   25 100      220 60 0         0  0.00452  0.03368  0.05169        0        0     4.64     4.64     4.64  1;
  54   25 100      220 60 0         0  0.00019   0.0014  0.00213        0        0     4.64     4.64     4.64  1;
 564   25 100      110 60 0       0.5  0.00157  0.07808        0    1.028        0      1.6      1.6      1.6  1;
  38   26 100      220 60 0         0  0.00698  0.05196  0.07967        0        0      1.6      1.6      1.6  1;
 568   26 100      110 60 0       0.5  0.00149  0.06616        0    1.013        0      1.6      1.6      1.6  1;
  28   27 100      220 60 0         0        0   0.0001        0        0        0     8.76     8.76     8.76  1;
  33   27 100      220 60 0         0   0.0024  0.01494  0.02253        0        0      1.6      1.6      1.6  1;
  48   27 100      220 60 0         0  0.01213  0.06215  0.09371        0        0     3.62     3.62     3.62  1;
  27   74 100      220 60 0         0  0.01116  0.07231   0.1037        0        0     3.04     3.04     3.04  1;
  47   28 100      220 60 0         0  0.00248  0.01798  0.02759        0        0     4.64     4.64     4.64  1;
  28   88 100      220 60 0         0  0.01488  0.08161   0.1148        0        0     3.62     3.62     3.62  1;
  30   29 100      220 60 0         0        0   0.0001        0        0        0     8.76     8.76     8.76  1;
  29   32 100      220 60 0      0.55  0.00034  0.02097        0    1.062        0        5        5        5  1;
  45   29 100      220 60 0         0  0.00545  0.04021  0.06699        0        0     4.64     4.64     4.64  1;
  48   29 100      220 60 0         0  0.00574  0.04283  0.06573        0        0     4.64     4.64     4.64  1;
 613   29 100      110 60 0       0.5  0.00157  0.06775        0    1.002        0      1.6      1.6      1.6  1;
  46   30 100      220 60 0         0  0.00545  0.04021  0.06699        0        0     4.64     4.64     4.64  1;
  49   30 100      220 60 0         0  0.00707  0.04541  0.06931        0        0     3.62     3.62     3.62  1;
  32   31 100      400 60 0         0        0   0.0001        0        0        0    15.93    15.93    15.93  1;
  39   31 100      400 60 0         0  0.00176  0.02144   0.5734        0        0    13.85    13.85    13.85  1;
  36   32 100      400 60 0         0  0.00167   0.0189   0.5418        0        0     4.98     4.98     4.98  1;
 615   33 100      110 60 0       0.5  0.00163  0.06946        0    1.029        0      1.6      1.6      1.6  1;
  35   34 100      400 60 0         0        0   0.0001        0        0        0    15.93    15.93    15.93  1;
  34   51 100      400 60 0         0  0.00113  0.01406   0.3749        0        0    13.85    13.85    13.85  1;
 183   34 100      400 60 0         0  0.00188  0.02287   0.6432        0        0    13.85    13.85    13.85  1;
 183   35 100      400 60 0         0  0.00188  0.02287   0.6432        0        0    13.85    13.85    13.85  1;
 617   35 100      110 60 0     0.275  0.00135  0.06052        0    1.065        0      2.5      2.5      2.5  1;
 644   36 100      110 60 0     0.275  0.00135  0.06052        0      1.1        0      2.5      2.5      2.5  1;
 645   36 100      110 60 0     0.275  0.00153  0.06156        0    1.097        0      2.5      2.5      2.5  1;
  38   37 100      220 60 0         0        0   0.0001        0        0        0     8.76     8.76     8.76  1;
 663   37 100      110 60 0       0.5  0.00157  0.06616        0    1.001        0      1.6      1.6      1.6  1;
  55   38 100      220 60 0         0  0.00316  0.02076  0.03146        0        0     3.94     3.94     3.94  1;
  40   39 100      400 60 0         0        0   0.0001        0        0        0    15.93    15.93    15.93  1;
 682   39 100      110 60 0     0.275  0.00139  0.05984        0     1.06        0      2.5      2.5      2.5  1;
  44   40 100      400 60 0         0  0.00109  0.01277   0.3418        0        0    13.85    13.85    13.85  1;
 679   40 100      110 60 0     0.275   0.0014  0.06235        0      1.1        0      2.5      2.5      2.5  1;
  42   41 100      220 60 0         0        0   0.0001        0        0        0     8.76     8.76     8.76  1;
  41   43 100      220 60 0      0.55  0.00081     0.03        0    1.038        0        4        4        4  1;
  80   41 100      220 60 0         0  0.00372   0.0438    0.101        0        0     6.09     6.09     6.09  1;
  47   42 100      220 60 0         0  0.00882  0.06564   0.1007        0        0     2.74     2.74     2.74  1;
  54   42 100      220 60 0         0  0.00355  0.02643  0.04056        0        0     3.92     3.92     3.92  1;
 689   42 100      110 60 0       0.5  0.00145  0.06839        0    1.004        0      1.6      1.6      1.6  1;
  44   43 100      400 60 0         0        0   0.0001        0        0        0    15.93    15.93    15.93  1;
  99   43 100      400 60 0         0  0.00169  0.01994   0.5062        0        0     8.31     8.31     8.31  1;
  50   44 100      400 60 0         0  0.00094  0.01097   0.2938        0        0    16.62    16.62    16.62  1;
  46   45 100      220 60 0         0        0   0.0001        0        0        0     8.76     8.76     8.76  1;
  49   45 100      220 60 0         0  0.01048  0.06097  0.09205        0        0     3.94     3.94     3.94  1;
 706   47 100      110 60 0       0.5  0.00157  0.06775        0    1.025        0      1.6      1.6      1.6  1;
 707   47 100      110 60 0       0.5  0.00165  0.06775        0     1.02        0      1.6      1.6      1.6  1;
  49   48 100      220 60 0         0        0   0.0001        0        0        0     8.76     8.76     8.76  1;
 717   48 100      110 60 0       0.5  0.00163  0.06783        0    1.023        0      1.6      1.6      1.6  1;
 716   49 100      110 60 0       0.5  0.00143  0.06831        0    1.024        0      1.6      1.6      1.6  1;
  51   50 100      400 60 0         0        0   0.0001        0        0        0    15.93    15.93    15.93  1;
  98   50 100      400 60 0         0   0.0015  0.01788   0.4512        0        0     8.31     8.31     8.31  1;
 100   50 100      400 60 0         0  0.00469  0.05544    1.405        0        0     8.31     8.31     8.31  1;
 726   50 100      110 60 0     0.275  0.00139   0.0608        0    1.081        0      2.5      2.5      2.5  1;
 727   51 100      110 60 0     0.275   0.0014  0.06235        0    1.082        0      2.5      2.5      2.5  1;
  53   52 100      220 60 0         0  0.00151  0.00878  0.01316        0        0      1.6      1.6      1.6  1;
 754   52 100      110 60 0       0.5  0.00163  0.06754        0    1.032        0      1.6      1.6      1.6  1;
 181   55 100      220 60 0         0  0.01434  0.08353    0.126        0        0     3.94     3.94     3.94  1;
 778   55 100      110 60 0       0.5  0.00161  0.06762        0   0.9979        0      1.6      1.6      1.6  1;
  74   56 100      220 60 0         0  0.00207  0.01281  0.02052        0        0     3.94     3.94     3.94  1;
 796   56 100      110 60 0       0.5  0.00207  0.06777   -0.003    1.039        0      1.6      1.6      1.6  1;
  81   57 100      220 60 0         0  0.00083  0.00496  0.00726        0        0     1.37     1.37     1.37  1;
  80   58 100      220 60 0         0  0.00083  0.00496  0.00726        0        0     1.37     1.37     1.37  1;
  63   59 100      220 60 0         0  0.00207  0.01405  0.02265        0        0     3.62     3.62     3.62  1;
  82   59 100      220 60 0         0  0.01116  0.07045   0.1161        0        0     3.62     3.62     3.62  1;
 821   59 100      110 60 0       0.5  0.00165  0.06798 -0.00319    1.018        0      1.6      1.6      1.6  1;
  60   85 100      220 60 0         0  0.01095   0.0593  0.08441        0        0     3.62     3.62     3.62  1;
 104   60 100      220 60 0         0  0.00599  0.04091  0.07212        0        0     4.64     4.64     4.64  1;
 834   60 100      110 60 0       0.5  0.00145  0.06921 -0.00532   0.9936        0      1.6      1.6      1.6  1;
 836   60 100      110 60 0       0.5  0.00372   0.1258 -0.00242    1.015        0        1        1        1  1;
  62   61 100      220 60 0         0        0   0.0001        0        0        0     8.76     8.76     8.76  1;
  64   61 100      220 60 0         0  0.00517  0.03843  0.05876        0        0     4.64     4.64     4.64  1;
 109   61 100      220 60 0         0  0.00083   0.0062  0.00958        0        0     4.64     4.64     4.64  1;
 184   61 100      220 60 0         0  0.01219  0.07066   0.1174        0        0     2.74     2.74     2.74  1;
  82   62 100      220 60 0         0  0.00165  0.01095  0.01955        0        0     4.64     4.64     4.64  1;
 110   62 100      220 60 0         0  0.00083   0.0062  0.00949        0        0     4.64     4.64     4.64  1;
  71   63 100      220 60 0         0  0.00475  0.03079  0.04879        0        0     3.62     3.62     3.62  1;
  91   63 100      220 60 0         0  0.00455  0.02769  0.04608        0        0     3.94     3.94     3.94  1;
  94   63 100      220 60 0         0  0.00186   0.0126  0.02236        0        0     4.64     4.64     4.64  1;
  96   63 100      220 60 0         0  0.00826  0.04236  0.06118        0        0     3.62     3.62     3.62  1;
  64   69 100      220 60 0         0  0.00434  0.02975  0.05266        0        0     4.64     4.64     4.64  1;
  79   64 100      220 60 0         0  0.00351  0.02438  0.03998        0        0     3.62     3.62     3.62  1;
  93   64 100      220 60 0         0  0.00186   0.0126  0.02236        0        0     4.64     4.64     4.64  1;
  95   64 100      220 60 0         0  0.00826  0.04236  0.06118        0        0     3.62     3.62     3.62  1;
  90   65 100      220 60 0         0  0.00785  0.04132  0.06389        0        0     3.94     3.94     3.94  1;
  65   91 100      220 60 0         0  0.00227  0.01446  0.02585        0        0     3.94     3.94     3.94  1;
  66   67 100      220 60 0      0.55  0.00031  0.02094        0    1.062        0        5        5        5  1;
  66   68 100      220 60 0         0  0.00248  0.02355  0.04763        0        0     4.57     4.57     4.57  1;
 152   66 100      220 60 0         0  0.01033  0.08285   0.1396        0        0     4.64     4.64     4.64  1;
 138   67 100      400 60 0         0  0.00194  0.02056   0.5158        0        0     8.66     8.66     8.66  1;
 911   67 100      110 60 0     0.275  0.00156  0.06269 -0.00992    1.066        0      2.5      2.5      2.5  1;
 912   67 100      110 60 0     0.275  0.00156  0.06269 -0.00992    1.066        0      2.5      2.5      2.5  1;
  68   78 100      220 60 0         0  0.00579  0.04153  0.06621        0        0     4.64     4.64     4.64  1;
 978   68 100      110 60 0       0.5  0.00165  0.06694  -0.0031    1.008        0      1.6      1.6      1.6  1;
 979   68 100      110 60 0       0.5  0.00145  0.06653 -0.00319    1.006        0      1.6      1.6      1.6  1;
  83   69 100      220 60 0         0  0.00145  0.00992  0.01762        0        0     4.64     4.64     4.64  1;
 995   69 100      110 60 0       0.5  0.00145   0.0655 -0.00252    1.011        0      1.6      1.6      1.6  1;
 996   69 100      110 60 0       0.5  0.00145  0.07045 -0.00252    1.002        0      1.6      1.6      1.6  1;
  70   73 100      220 60 0         0  0.00145  0.00971  0.01626        0        0     4.57     4.57     4.57  1;
 107   70 100      220 60 0         0  0.00062  0.00413  0.00697        0        0     4.57     4.57     4.57  1;
  72   71 100      220 60 0         0        0   0.0001        0        0        0     8.76     8.76     8.76  1;
  86   71 100      220 60 0         0  0.00165  0.00971  0.01423        0        0     3.62     3.62     3.62  1;
1059   71 100      110 60 0       0.5  0.00145  0.06983 -0.00232    1.019        0      1.6      1.6      1.6  1;
1060   71 100      110 60 0       0.5  0.00165  0.06777 -0.00281   0.9558        0      1.6      1.6      1.6  1;
  73   75 100      220 60 0      0.55  0.00075  0.02444 -0.00832    1.054      1.7      3.3      3.3      3.3  1;
  87   73 100      220 60 0         0  0.00393  0.02851  0.04501        0        0     4.64     4.64     4.64  1;
  74   76 100      220 60 0      0.55  0.00075  0.02469   -0.008    1.061      1.7      3.3      3.3      3.3  1;
  74  108 100      220 60 0         0  0.00083  0.00517  0.00871        0        0     4.64     4.64     4.64  1;
  76   75 100      400 60 0         0        0   0.0001        0        0        0    15.93    15.93    15.93  1;
  76  105 100      400 60 0         0  0.00244  0.02756    0.768        0        0     8.45     8.45     8.45  1;
  84   77 100      220 60 0         0  0.00393  0.02665  0.04617        0        0     4.57     4.57     4.57  1;
  85   77 100      220 60 0         0  0.00186  0.01384  0.02284        0        0     4.64     4.64     4.64  1;
1095   77 100      110 60 0       0.5  0.00165  0.06694  -0.0029    1.016        0      1.6      1.6      1.6  1;
1096   77 100      110 60 0       0.5  0.00145  0.06736 -0.00658    1.008        0      1.6      1.6      1.6  1;
  78  103 100      220 60 0         0  0.00496  0.03368  0.05963        0        0     4.64     4.64     4.64  1;
...